@<TRIPOS>MOLECULE
C15H13FO2
   31    32     1     0     0
SMALL
NO_CHARGES


@<TRIPOS>ATOM
      1 C1         -0.1564    1.2053    0.0328 C.ar      1 <1>         0.0000
      2 C2         -3.1394    1.1869    0.7014 C.ar      1 <1>         0.0000
      3 C3         -3.1421   -0.6008   -0.9158 C.ar      1 <1>         0.0000
      4 C4          0.9525   -1.2957    0.4923 C.ar      1 <1>         0.0000
      5 C5          1.2097    1.0682    0.1761 C.ar      1 <1>         0.0000
      6 C6         -4.5057    1.3143    0.5540 C.ar      1 <1>         0.0000
      7 C7         -4.5085   -0.4646   -1.0552 C.ar      1 <1>         0.0000
      8 C8         -5.1892    0.4906   -0.3221 C.ar      1 <1>         0.0000
      9 C9          3.7259    0.5203    1.7495 C.3       1 <1>         0.0000
     10 C10        -0.9796    0.0849    0.1192 C.ar      1 <1>         0.0000
     11 C11        -2.4485    0.2263   -0.0346 C.ar      1 <1>         0.0000
     12 C12        -0.4169   -1.1712    0.3505 C.ar      1 <1>         0.0000
     13 C13         1.7631   -0.1786    0.4048 C.ar      1 <1>         0.0000
     14 O1          3.2821    0.5709   -1.6204 O.2       1 <1>         0.0000
     15 O2          5.2780    0.1245   -0.7835 O.3       1 <1>         0.0000
     16 C14         3.9391    0.1578   -0.6944 C.2       1 <1>         0.0000
     17 H1          5.6711    0.4414   -1.6081 H         1 <1>         0.0000
     18 C15         3.2553   -0.3201    0.5607 C.3       1 <1>         0.0000
     19 F1         -1.2085   -2.2627    0.4351 F         1 <1>         0.0000
     20 H2         -0.5868    2.1804   -0.1416 H         1 <1>         0.0000
     21 H3         -2.6061    1.8334    1.3825 H         1 <1>         0.0000
     22 H4         -2.6116   -1.3472   -1.4884 H         1 <1>         0.0000
     23 H5          1.3900   -2.2666    0.6717 H         1 <1>         0.0000
     24 H6          1.8481    1.9368    0.1092 H         1 <1>         0.0000
     25 H7         -5.0423    2.0582    1.1242 H         1 <1>         0.0000
     26 H8         -5.0471   -1.1049   -1.7382 H         1 <1>         0.0000
     27 H9         -6.2584    0.5937   -0.4343 H         1 <1>         0.0000
     28 H10         3.5048   -1.3668    0.7343 H         1 <1>         0.0000
     29 H11         3.2313    0.1747    2.6572 H         1 <1>         0.0000
     30 H12         4.8052    0.4180    1.8622 H         1 <1>         0.0000
     31 H13         3.4764    1.5671    1.5758 H         1 <1>         0.0000
@<TRIPOS>BOND
     1   10   11 1
     2   10   12 ar
     3   10    1 ar
     4   11    2 ar
     5   11    3 ar
     6   12    4 ar
     7   12   19 1
     8    1    5 ar
     9    2    6 ar
    10    3    7 ar
    11    4   13 ar
    12    6    8 ar
    13   13   18 1
    14   18   16 1
    15   18    9 1
    16   16   15 1
    17   16   14 2
    18    5   13 ar
    19    7    8 ar
    20    1   20 1
    21    2   21 1
    22    3   22 1
    23    4   23 1
    24    5   24 1
    25    6   25 1
    26    7   26 1
    27    8   27 1
    28   18   28 1
    29    9   29 1
    30    9   30 1
    31    9   31 1
    32   15   17 1
