REMARK  Name = C15H13FO2
REMARK  5 active torsions:
REMARK  status: ('A' for Active; 'I' for Inactive)
REMARK    1  A    between atoms: C_9  and  C_18
REMARK    2  A    between atoms: C_10  and  C_11
REMARK    3  A    between atoms: C_13  and  C_18
REMARK    4  A    between atoms: O_15  and  C_16
REMARK    5  A    between atoms: C_16  and  C_18
REMARK                            x       y       z     vdW  Elec       q    Type
REMARK                         _______ _______ _______ _____ _____    ______ ____
ROOT
ATOM      1  C   UNL     1      -1.216   1.179  -0.007  0.00  0.00    +0.000 A 
ATOM      2  C   UNL     1       0.185  -1.218   0.023  0.00  0.00    +0.000 A 
ATOM      3  C   UNL     1      -1.907  -0.040   0.015  0.00  0.00    +0.000 A 
ATOM      4  C   UNL     1       0.190   1.232   0.001  0.00  0.00    +0.000 A 
ATOM      5  C   UNL     1       0.863   0.001   0.028  0.00  0.00    +0.000 A 
ATOM      6  C   UNL     1      -1.212  -1.257   0.027  0.00  0.00    +0.000 A 
ATOM      7  F   UNL     1       2.204  -0.053   0.057  0.00  0.00    +0.000 F 
ENDROOT
BRANCH   4  13
ATOM      8  C   UNL     1       2.145   2.661  -0.704  0.00  0.00    +0.000 A 
ATOM      9  C   UNL     1       0.407   3.670   0.609  0.00  0.00    +0.000 A 
ATOM     10  C   UNL     1       2.845   3.868  -0.715  0.00  0.00    +0.000 A 
ATOM     11  C   UNL     1       1.096   4.886   0.583  0.00  0.00    +0.000 A 
ATOM     12  C   UNL     1       2.318   4.984  -0.075  0.00  0.00    +0.000 A 
ATOM     13  C   UNL     1       0.916   2.525  -0.031  0.00  0.00    +0.000 A 
ENDBRANCH   4  13
BRANCH   6  15
ATOM     14  C   UNL     1      -1.344  -3.656   0.842  0.00  0.00    +0.000 C 
ATOM     15  C   UNL     1      -1.982  -2.569  -0.031  0.00  0.00    +0.000 C 
BRANCH  15  17
ATOM     16  O   UNL     1      -2.755  -4.194  -1.649  0.00  0.00    +0.000 OA
ATOM     17  C   UNL     1      -2.211  -3.116  -1.442  0.00  0.00    +0.000 C 
BRANCH  17  18
ATOM     18  O   UNL     1      -1.811  -2.340  -2.472  0.00  0.00    +0.000 OA
ATOM     19  H   UNL     1      -1.395  -1.488  -2.233  0.00  0.00    +0.000 HD
ENDBRANCH  17  18
ENDBRANCH  15  17
ENDBRANCH   6  15
TORSDOF 4
