MODEL 1
REMARK VINA RESULT:    -4.814      0.000      0.000
REMARK INTER + INTRA:          -6.299
REMARK INTER:                  -5.799
REMARK INTRA:                  -0.500
REMARK UNBOUND:                -0.500
REMARK  Name = C15H13FO2
REMARK  5 active torsions:
REMARK  status: ('A' for Active; 'I' for Inactive)
REMARK    1  A    between atoms: C_9  and  C_18
REMARK    2  A    between atoms: C_10  and  C_11
REMARK    3  A    between atoms: C_13  and  C_18
REMARK    4  A    between atoms: O_15  and  C_16
REMARK    5  A    between atoms: C_16  and  C_18
REMARK                            x       y       z     vdW  Elec       q    Type
REMARK                         _______ _______ _______ _____ _____    ______ ____
ROOT
ATOM      1  C   UNL     1      -4.189 -10.759 107.905  0.00  0.00    +0.000 A 
ATOM      2  C   UNL     1      -1.467 -10.983 107.405  0.00  0.00    +0.000 A 
ATOM      3  C   UNL     1      -3.689 -10.532 106.616  0.00  0.00    +0.000 A 
ATOM      4  C   UNL     1      -3.346 -11.119 108.972  0.00  0.00    +0.000 A 
ATOM      5  C   UNL     1      -1.978 -11.234 108.678  0.00  0.00    +0.000 A 
ATOM      6  C   UNL     1      -2.317 -10.638 106.351  0.00  0.00    +0.000 A 
ATOM      7  F   UNL     1      -1.096 -11.591 109.625  0.00  0.00    +0.000 F 
ENDROOT
BRANCH   4  13
ATOM      8  C   UNL     1      -4.847 -12.341 110.589  0.00  0.00    +0.000 A 
ATOM      9  C   UNL     1      -3.440 -10.590 111.437  0.00  0.00    +0.000 A 
ATOM     10  C   UNL     1      -5.372 -12.545 111.866  0.00  0.00    +0.000 A 
ATOM     11  C   UNL     1      -3.949 -10.806 112.721  0.00  0.00    +0.000 A 
ATOM     12  C   UNL     1      -4.919 -11.780 112.935  0.00  0.00    +0.000 A 
ATOM     13  C   UNL     1      -3.879 -11.350 110.337  0.00  0.00    +0.000 A 
ENDBRANCH   4  13
BRANCH   6  15
ATOM     14  C   UNL     1      -2.549  -9.148 104.311  0.00  0.00    +0.000 C 
ATOM     15  C   UNL     1      -1.787 -10.308 104.962  0.00  0.00    +0.000 C 
BRANCH  15  17
ATOM     16  O   UNL     1      -1.325 -11.389 102.847  0.00  0.00    +0.000 OA
ATOM     17  C   UNL     1      -1.738 -11.494 103.996  0.00  0.00    +0.000 C 
BRANCH  17  18
ATOM     18  O   UNL     1      -2.145 -12.690 104.473  0.00  0.00    +0.000 OA
ATOM     19  H   UNL     1      -2.441 -13.341 103.806  0.00  0.00    +0.000 HD
ENDBRANCH  17  18
ENDBRANCH  15  17
ENDBRANCH   6  15
TORSDOF 4
ENDMDL
MODEL 2
REMARK VINA RESULT:    -4.791     12.503     13.443
REMARK INTER + INTRA:          -6.272
REMARK INTER:                  -5.847
REMARK INTRA:                  -0.424
REMARK UNBOUND:                -0.500
REMARK  Name = C15H13FO2
REMARK  5 active torsions:
REMARK  status: ('A' for Active; 'I' for Inactive)
REMARK    1  A    between atoms: C_9  and  C_18
REMARK    2  A    between atoms: C_10  and  C_11
REMARK    3  A    between atoms: C_13  and  C_18
REMARK    4  A    between atoms: O_15  and  C_16
REMARK    5  A    between atoms: C_16  and  C_18
REMARK                            x       y       z     vdW  Elec       q    Type
REMARK                         _______ _______ _______ _____ _____    ______ ____
ROOT
ATOM      1  C   UNL     1      -6.299   0.235 107.504  0.00  0.00    +0.000 A 
ATOM      2  C   UNL     1      -7.761   2.581 107.239  0.00  0.00    +0.000 A 
ATOM      3  C   UNL     1      -6.917   0.546 106.285  0.00  0.00    +0.000 A 
ATOM      4  C   UNL     1      -6.383   1.095 108.615  0.00  0.00    +0.000 A 
ATOM      5  C   UNL     1      -7.121   2.275 108.439  0.00  0.00    +0.000 A 
ATOM      6  C   UNL     1      -7.660   1.725 106.139  0.00  0.00    +0.000 A 
ATOM      7  F   UNL     1      -7.243   3.168 109.434  0.00  0.00    +0.000 F 
ENDROOT
BRANCH   4  13
ATOM      8  C   UNL     1      -4.369   0.420 109.975  0.00  0.00    +0.000 A 
ATOM      9  C   UNL     1      -6.455   0.759 111.114  0.00  0.00    +0.000 A 
ATOM     10  C   UNL     1      -3.760   0.076 111.183  0.00  0.00    +0.000 A 
ATOM     11  C   UNL     1      -5.844   0.434 112.328  0.00  0.00    +0.000 A 
ATOM     12  C   UNL     1      -4.496   0.087 112.362  0.00  0.00    +0.000 A 
ATOM     13  C   UNL     1      -5.734   0.757 109.905  0.00  0.00    +0.000 A 
ENDBRANCH   4  13
BRANCH   6  15
ATOM     14  C   UNL     1      -9.060   0.747 104.262  0.00  0.00    +0.000 C 
ATOM     15  C   UNL     1      -8.390   2.002 104.832  0.00  0.00    +0.000 C 
BRANCH  15  17
ATOM     16  O   UNL     1      -7.986   2.977 102.654  0.00  0.00    +0.000 OA
ATOM     17  C   UNL     1      -7.533   2.660 103.747  0.00  0.00    +0.000 C 
BRANCH  17  18
ATOM     18  O   UNL     1      -6.243   2.911 104.054  0.00  0.00    +0.000 OA
ATOM     19  H   UNL     1      -6.081   3.677 104.641  0.00  0.00    +0.000 HD
ENDBRANCH  17  18
ENDBRANCH  15  17
ENDBRANCH   6  15
TORSDOF 4
ENDMDL
MODEL 3
REMARK VINA RESULT:    -4.737     13.490     15.482
REMARK INTER + INTRA:          -6.207
REMARK INTER:                  -5.591
REMARK INTRA:                  -0.616
REMARK UNBOUND:                -0.500
REMARK  Name = C15H13FO2
REMARK  5 active torsions:
REMARK  status: ('A' for Active; 'I' for Inactive)
REMARK    1  A    between atoms: C_9  and  C_18
REMARK    2  A    between atoms: C_10  and  C_11
REMARK    3  A    between atoms: C_13  and  C_18
REMARK    4  A    between atoms: O_15  and  C_16
REMARK    5  A    between atoms: C_16  and  C_18
REMARK                            x       y       z     vdW  Elec       q    Type
REMARK                         _______ _______ _______ _____ _____    ______ ____
ROOT
ATOM      1  C   UNL     1      -7.041   0.756 106.297  0.00  0.00    +0.000 A 
ATOM      2  C   UNL     1      -7.728   2.767 108.084  0.00  0.00    +0.000 A 
ATOM      3  C   UNL     1      -6.591   0.703 107.623  0.00  0.00    +0.000 A 
ATOM      4  C   UNL     1      -7.857   1.805 105.835  0.00  0.00    +0.000 A 
ATOM      5  C   UNL     1      -8.193   2.796 106.769  0.00  0.00    +0.000 A 
ATOM      6  C   UNL     1      -6.928   1.713 108.535  0.00  0.00    +0.000 A 
ATOM      7  F   UNL     1      -8.982   3.827 106.430  0.00  0.00    +0.000 F 
ENDROOT
BRANCH   4  13
ATOM      8  C   UNL     1      -7.817   2.812 103.523  0.00  0.00    +0.000 A 
ATOM      9  C   UNL     1      -9.290   0.963 103.938  0.00  0.00    +0.000 A 
ATOM     10  C   UNL     1      -8.272   2.886 102.206  0.00  0.00    +0.000 A 
ATOM     11  C   UNL     1      -9.733   1.020 102.613  0.00  0.00    +0.000 A 
ATOM     12  C   UNL     1      -9.227   1.986 101.748  0.00  0.00    +0.000 A 
ATOM     13  C   UNL     1      -8.323   1.860 104.428  0.00  0.00    +0.000 A 
ENDBRANCH   4  13
BRANCH   6  15
ATOM     14  C   UNL     1      -5.624   0.367 110.245  0.00  0.00    +0.000 C 
ATOM     15  C   UNL     1      -6.362   1.677 109.947  0.00  0.00    +0.000 C 
BRANCH  15  17
ATOM     16  O   UNL     1      -8.404   1.288 111.186  0.00  0.00    +0.000 OA
ATOM     17  C   UNL     1      -7.383   1.952 111.054  0.00  0.00    +0.000 C 
BRANCH  17  18
ATOM     18  O   UNL     1      -7.098   2.951 111.916  0.00  0.00    +0.000 OA
ATOM     19  H   UNL     1      -7.780   3.146 112.589  0.00  0.00    +0.000 HD
ENDBRANCH  17  18
ENDBRANCH  15  17
ENDBRANCH   6  15
TORSDOF 4
ENDMDL
MODEL 4
REMARK VINA RESULT:    -4.730      3.067      6.741
REMARK INTER + INTRA:          -6.199
REMARK INTER:                  -5.578
REMARK INTRA:                  -0.620
REMARK UNBOUND:                -0.500
REMARK  Name = C15H13FO2
REMARK  5 active torsions:
REMARK  status: ('A' for Active; 'I' for Inactive)
REMARK    1  A    between atoms: C_9  and  C_18
REMARK    2  A    between atoms: C_10  and  C_11
REMARK    3  A    between atoms: C_13  and  C_18
REMARK    4  A    between atoms: O_15  and  C_16
REMARK    5  A    between atoms: C_16  and  C_18
REMARK                            x       y       z     vdW  Elec       q    Type
REMARK                         _______ _______ _______ _____ _____    ______ ____
ROOT
ATOM      1  C   UNL     1      -3.559 -10.726 106.584  0.00  0.00    +0.000 A 
ATOM      2  C   UNL     1      -1.393 -10.863 108.315  0.00  0.00    +0.000 A 
ATOM      3  C   UNL     1      -3.766 -10.914 107.957  0.00  0.00    +0.000 A 
ATOM      4  C   UNL     1      -2.268 -10.587 106.043  0.00  0.00    +0.000 A 
ATOM      5  C   UNL     1      -1.199 -10.650 106.950  0.00  0.00    +0.000 A 
ATOM      6  C   UNL     1      -2.681 -10.988 108.841  0.00  0.00    +0.000 A 
ATOM      7  F   UNL     1       0.069 -10.509 106.534  0.00  0.00    +0.000 F 
ENDROOT
BRANCH   4  13
ATOM      8  C   UNL     1      -1.528 -11.425 103.782  0.00  0.00    +0.000 A 
ATOM      9  C   UNL     1      -2.370  -9.183 103.951  0.00  0.00    +0.000 A 
ATOM     10  C   UNL     1      -1.301 -11.242 102.417  0.00  0.00    +0.000 A 
ATOM     11  C   UNL     1      -2.162  -9.004 102.580  0.00  0.00    +0.000 A 
ATOM     12  C   UNL     1      -1.623 -10.032 101.814  0.00  0.00    +0.000 A 
ATOM     13  C   UNL     1      -2.055 -10.397 104.588  0.00  0.00    +0.000 A 
ENDBRANCH   4  13
BRANCH   6  15
ATOM     14  C   UNL     1      -4.395 -11.088 110.709  0.00  0.00    +0.000 C 
ATOM     15  C   UNL     1      -2.925 -11.273 110.317  0.00  0.00    +0.000 C 
BRANCH  15  17
ATOM     16  O   UNL     1      -2.075  -9.259 111.354  0.00  0.00    +0.000 OA
ATOM     17  C   UNL     1      -2.036 -10.481 111.278  0.00  0.00    +0.000 C 
BRANCH  17  18
ATOM     18  O   UNL     1      -1.212 -11.192 112.077  0.00  0.00    +0.000 OA
ATOM     19  H   UNL     1      -1.415 -11.172 113.033  0.00  0.00    +0.000 HD
ENDBRANCH  17  18
ENDBRANCH  15  17
ENDBRANCH   6  15
TORSDOF 4
ENDMDL
MODEL 5
REMARK VINA RESULT:    -4.728     12.689     14.439
REMARK INTER + INTRA:          -6.195
REMARK INTER:                  -5.592
REMARK INTRA:                  -0.603
REMARK UNBOUND:                -0.500
REMARK  Name = C15H13FO2
REMARK  5 active torsions:
REMARK  status: ('A' for Active; 'I' for Inactive)
REMARK    1  A    between atoms: C_9  and  C_18
REMARK    2  A    between atoms: C_10  and  C_11
REMARK    3  A    between atoms: C_13  and  C_18
REMARK    4  A    between atoms: O_15  and  C_16
REMARK    5  A    between atoms: C_16  and  C_18
REMARK                            x       y       z     vdW  Elec       q    Type
REMARK                         _______ _______ _______ _____ _____    ______ ____
ROOT
ATOM      1  C   UNL     1     -15.167  -8.107 107.273  0.00  0.00    +0.000 A 
ATOM      2  C   UNL     1     -16.455  -9.671 109.171  0.00  0.00    +0.000 A 
ATOM      3  C   UNL     1     -15.194  -7.705 108.615  0.00  0.00    +0.000 A 
ATOM      4  C   UNL     1     -15.768  -9.306 106.848  0.00  0.00    +0.000 A 
ATOM      5  C   UNL     1     -16.399 -10.076 107.838  0.00  0.00    +0.000 A 
ATOM      6  C   UNL     1     -15.843  -8.484 109.583  0.00  0.00    +0.000 A 
ATOM      7  F   UNL     1     -16.984 -11.245 107.535  0.00  0.00    +0.000 F 
ENDROOT
BRANCH   4  13
ATOM      8  C   UNL     1     -16.914  -9.732 104.642  0.00  0.00    +0.000 A 
ATOM      9  C   UNL     1     -14.551 -10.125 104.796  0.00  0.00    +0.000 A 
ATOM     10  C   UNL     1     -16.902 -10.148 103.310  0.00  0.00    +0.000 A 
ATOM     11  C   UNL     1     -14.531 -10.523 103.456  0.00  0.00    +0.000 A 
ATOM     12  C   UNL     1     -15.708 -10.539 102.714  0.00  0.00    +0.000 A 
ATOM     13  C   UNL     1     -15.744  -9.723 105.425  0.00  0.00    +0.000 A 
ENDBRANCH   4  13
BRANCH   6  15
ATOM     14  C   UNL     1     -15.104  -6.716 111.246  0.00  0.00    +0.000 C 
ATOM     15  C   UNL     1     -15.930  -7.988 111.020  0.00  0.00    +0.000 C 
BRANCH  15  17
ATOM     16  O   UNL     1     -14.512  -9.655 112.052  0.00  0.00    +0.000 OA
ATOM     17  C   UNL     1     -15.565  -9.030 112.080  0.00  0.00    +0.000 C 
BRANCH  17  18
ATOM     18  O   UNL     1     -16.449  -9.217 113.084  0.00  0.00    +0.000 OA
ATOM     19  H   UNL     1     -17.387  -9.046 112.869  0.00  0.00    +0.000 HD
ENDBRANCH  17  18
ENDBRANCH  15  17
ENDBRANCH   6  15
TORSDOF 4
ENDMDL
MODEL 6
REMARK VINA RESULT:    -4.594     13.271     14.306
REMARK INTER + INTRA:          -6.034
REMARK INTER:                  -5.465
REMARK INTRA:                  -0.569
REMARK UNBOUND:                -0.500
REMARK  Name = C15H13FO2
REMARK  5 active torsions:
REMARK  status: ('A' for Active; 'I' for Inactive)
REMARK    1  A    between atoms: C_9  and  C_18
REMARK    2  A    between atoms: C_10  and  C_11
REMARK    3  A    between atoms: C_13  and  C_18
REMARK    4  A    between atoms: O_15  and  C_16
REMARK    5  A    between atoms: C_16  and  C_18
REMARK                            x       y       z     vdW  Elec       q    Type
REMARK                         _______ _______ _______ _____ _____    ______ ____
ROOT
ATOM      1  C   UNL     1     -10.153  -1.104 105.421  0.00  0.00    +0.000 A 
ATOM      2  C   UNL     1     -10.545   0.451 107.688  0.00  0.00    +0.000 A 
ATOM      3  C   UNL     1      -9.177  -0.180 105.818  0.00  0.00    +0.000 A 
ATOM      4  C   UNL     1     -11.340  -1.286 106.153  0.00  0.00    +0.000 A 
ATOM      5  C   UNL     1     -11.497  -0.491 107.299  0.00  0.00    +0.000 A 
ATOM      6  C   UNL     1      -9.364   0.613 106.958  0.00  0.00    +0.000 A 
ATOM      7  F   UNL     1     -12.587  -0.605 108.075  0.00  0.00    +0.000 F 
ENDROOT
BRANCH   4  13
ATOM      8  C   UNL     1     -12.685  -3.391 106.501  0.00  0.00    +0.000 A 
ATOM      9  C   UNL     1     -13.086  -2.093 104.521  0.00  0.00    +0.000 A 
ATOM     10  C   UNL     1     -13.637  -4.324 106.088  0.00  0.00    +0.000 A 
ATOM     11  C   UNL     1     -14.054  -3.015 104.115  0.00  0.00    +0.000 A 
ATOM     12  C   UNL     1     -14.327  -4.134 104.896  0.00  0.00    +0.000 A 
ATOM     13  C   UNL     1     -12.373  -2.259 105.723  0.00  0.00    +0.000 A 
ENDBRANCH   4  13
BRANCH   6  15
ATOM     14  C   UNL     1      -8.311   1.965 108.829  0.00  0.00    +0.000 C 
ATOM     15  C   UNL     1      -8.328   1.667 107.325  0.00  0.00    +0.000 C 
BRANCH  15  17
ATOM     16  O   UNL     1      -7.758   3.222 105.561  0.00  0.00    +0.000 OA
ATOM     17  C   UNL     1      -8.445   2.979 106.546  0.00  0.00    +0.000 C 
BRANCH  17  18
ATOM     18  O   UNL     1      -9.370   3.865 106.973  0.00  0.00    +0.000 OA
ATOM     19  H   UNL     1     -10.025   4.158 106.308  0.00  0.00    +0.000 HD
ENDBRANCH  17  18
ENDBRANCH  15  17
ENDBRANCH   6  15
TORSDOF 4
ENDMDL
MODEL 7
REMARK VINA RESULT:    -4.580     10.350     11.508
REMARK INTER + INTRA:          -6.017
REMARK INTER:                  -5.438
REMARK INTRA:                  -0.579
REMARK UNBOUND:                -0.500
REMARK  Name = C15H13FO2
REMARK  5 active torsions:
REMARK  status: ('A' for Active; 'I' for Inactive)
REMARK    1  A    between atoms: C_9  and  C_18
REMARK    2  A    between atoms: C_10  and  C_11
REMARK    3  A    between atoms: C_13  and  C_18
REMARK    4  A    between atoms: O_15  and  C_16
REMARK    5  A    between atoms: C_16  and  C_18
REMARK                            x       y       z     vdW  Elec       q    Type
REMARK                         _______ _______ _______ _____ _____    ______ ____
ROOT
ATOM      1  C   UNL     1      -5.195  -2.267 109.811  0.00  0.00    +0.000 A 
ATOM      2  C   UNL     1      -5.169   0.111 108.378  0.00  0.00    +0.000 A 
ATOM      3  C   UNL     1      -5.957  -1.174 110.246  0.00  0.00    +0.000 A 
ATOM      4  C   UNL     1      -4.414  -2.204 108.642  0.00  0.00    +0.000 A 
ATOM      5  C   UNL     1      -4.435  -0.991 107.939  0.00  0.00    +0.000 A 
ATOM      6  C   UNL     1      -5.950   0.033 109.534  0.00  0.00    +0.000 A 
ATOM      7  F   UNL     1      -3.738  -0.839 106.801  0.00  0.00    +0.000 F 
ENDROOT
BRANCH   4  13
ATOM      8  C   UNL     1      -2.439  -3.755 108.878  0.00  0.00    +0.000 A 
ATOM      9  C   UNL     1      -3.963  -4.115 107.058  0.00  0.00    +0.000 A 
ATOM     10  C   UNL     1      -1.658  -4.826 108.442  0.00  0.00    +0.000 A 
ATOM     11  C   UNL     1      -3.194  -5.201 106.631  0.00  0.00    +0.000 A 
ATOM     12  C   UNL     1      -2.038  -5.554 107.320  0.00  0.00    +0.000 A 
ATOM     13  C   UNL     1      -3.603  -3.361 108.191  0.00  0.00    +0.000 A 
ENDBRANCH   4  13
BRANCH   6  15
ATOM     14  C   UNL     1      -8.150   0.865 110.485  0.00  0.00    +0.000 C 
ATOM     15  C   UNL     1      -6.721   1.232 110.069  0.00  0.00    +0.000 C 
BRANCH  15  17
ATOM     16  O   UNL     1      -7.575   2.549 108.227  0.00  0.00    +0.000 OA
ATOM     17  C   UNL     1      -6.756   2.441 109.132  0.00  0.00    +0.000 C 
BRANCH  17  18
ATOM     18  O   UNL     1      -5.854   3.420 109.360  0.00  0.00    +0.000 OA
ATOM     19  H   UNL     1      -4.914   3.171 109.255  0.00  0.00    +0.000 HD
ENDBRANCH  17  18
ENDBRANCH  15  17
ENDBRANCH   6  15
TORSDOF 4
ENDMDL
MODEL 8
REMARK VINA RESULT:    -4.578      4.286      7.189
REMARK INTER + INTRA:          -6.015
REMARK INTER:                  -5.454
REMARK INTRA:                  -0.561
REMARK UNBOUND:                -0.500
REMARK  Name = C15H13FO2
REMARK  5 active torsions:
REMARK  status: ('A' for Active; 'I' for Inactive)
REMARK    1  A    between atoms: C_9  and  C_18
REMARK    2  A    between atoms: C_10  and  C_11
REMARK    3  A    between atoms: C_13  and  C_18
REMARK    4  A    between atoms: O_15  and  C_16
REMARK    5  A    between atoms: C_16  and  C_18
REMARK                            x       y       z     vdW  Elec       q    Type
REMARK                         _______ _______ _______ _____ _____    ______ ____
ROOT
ATOM      1  C   UNL     1      -3.518  -7.345 105.134  0.00  0.00    +0.000 A 
ATOM      2  C   UNL     1      -2.023  -7.506 107.469  0.00  0.00    +0.000 A 
ATOM      3  C   UNL     1      -3.201  -8.595 105.683  0.00  0.00    +0.000 A 
ATOM      4  C   UNL     1      -3.110  -6.145 105.745  0.00  0.00    +0.000 A 
ATOM      5  C   UNL     1      -2.367  -6.266 106.929  0.00  0.00    +0.000 A 
ATOM      6  C   UNL     1      -2.444  -8.690 106.859  0.00  0.00    +0.000 A 
ATOM      7  F   UNL     1      -1.948  -5.179 107.597  0.00  0.00    +0.000 F 
ENDROOT
BRANCH   4  13
ATOM      8  C   UNL     1      -4.288  -3.916 105.818  0.00  0.00    +0.000 A 
ATOM      9  C   UNL     1      -2.923  -4.425 103.911  0.00  0.00    +0.000 A 
ATOM     10  C   UNL     1      -4.624  -2.684 105.256  0.00  0.00    +0.000 A 
ATOM     11  C   UNL     1      -3.241  -3.183 103.354  0.00  0.00    +0.000 A 
ATOM     12  C   UNL     1      -4.096  -2.314 104.025  0.00  0.00    +0.000 A 
ATOM     13  C   UNL     1      -3.441  -4.825 105.156  0.00  0.00    +0.000 A 
ENDBRANCH   4  13
BRANCH   6  15
ATOM     14  C   UNL     1      -1.780 -10.039 108.902  0.00  0.00    +0.000 C 
ATOM     15  C   UNL     1      -2.043 -10.059 107.392  0.00  0.00    +0.000 C 
BRANCH  15  17
ATOM     16  O   UNL     1      -0.993 -11.441 105.706  0.00  0.00    +0.000 OA
ATOM     17  C   UNL     1      -0.855 -10.703 106.674  0.00  0.00    +0.000 C 
BRANCH  17  18
ATOM     18  O   UNL     1       0.377 -10.400 107.137  0.00  0.00    +0.000 OA
ATOM     19  H   UNL     1       0.539 -10.583 108.083  0.00  0.00    +0.000 HD
ENDBRANCH  17  18
ENDBRANCH  15  17
ENDBRANCH   6  15
TORSDOF 4
ENDMDL
MODEL 9
REMARK VINA RESULT:    -4.532     12.653     14.060
REMARK INTER + INTRA:          -5.960
REMARK INTER:                  -5.376
REMARK INTRA:                  -0.584
REMARK UNBOUND:                -0.500
REMARK  Name = C15H13FO2
REMARK  5 active torsions:
REMARK  status: ('A' for Active; 'I' for Inactive)
REMARK    1  A    between atoms: C_9  and  C_18
REMARK    2  A    between atoms: C_10  and  C_11
REMARK    3  A    between atoms: C_13  and  C_18
REMARK    4  A    between atoms: O_15  and  C_16
REMARK    5  A    between atoms: C_16  and  C_18
REMARK                            x       y       z     vdW  Elec       q    Type
REMARK                         _______ _______ _______ _____ _____    ______ ____
ROOT
ATOM      1  C   UNL     1     -13.096  -5.277 109.738  0.00  0.00    +0.000 A 
ATOM      2  C   UNL     1     -15.175  -6.262 108.182  0.00  0.00    +0.000 A 
ATOM      3  C   UNL     1     -13.562  -6.584 109.932  0.00  0.00    +0.000 A 
ATOM      4  C   UNL     1     -13.645  -4.435 108.753  0.00  0.00    +0.000 A 
ATOM      5  C   UNL     1     -14.686  -4.971 107.980  0.00  0.00    +0.000 A 
ATOM      6  C   UNL     1     -14.613  -7.092 109.156  0.00  0.00    +0.000 A 
ATOM      7  F   UNL     1     -15.261  -4.253 107.002  0.00  0.00    +0.000 F 
ENDROOT
BRANCH   4  13
ATOM      8  C   UNL     1     -13.413  -2.038 109.503  0.00  0.00    +0.000 A 
ATOM      9  C   UNL     1     -12.408  -2.687 107.422  0.00  0.00    +0.000 A 
ATOM     10  C   UNL     1     -12.976  -0.727 109.312  0.00  0.00    +0.000 A 
ATOM     11  C   UNL     1     -11.951  -1.378 107.237  0.00  0.00    +0.000 A 
ATOM     12  C   UNL     1     -12.239  -0.397 108.180  0.00  0.00    +0.000 A 
ATOM     13  C   UNL     1     -13.154  -3.049 108.558  0.00  0.00    +0.000 A 
ENDBRANCH   4  13
BRANCH   6  15
ATOM     14  C   UNL     1     -15.789  -9.125 108.196  0.00  0.00    +0.000 C 
ATOM     15  C   UNL     1     -15.157  -8.486 109.438  0.00  0.00    +0.000 C 
BRANCH  15  17
ATOM     16  O   UNL     1     -15.934  -9.268 111.592  0.00  0.00    +0.000 OA
ATOM     17  C   UNL     1     -16.139  -8.566 110.609  0.00  0.00    +0.000 C 
BRANCH  17  18
ATOM     18  O   UNL     1     -17.246  -7.798 110.533  0.00  0.00    +0.000 OA
ATOM     19  H   UNL     1     -17.438  -7.404 109.659  0.00  0.00    +0.000 HD
ENDBRANCH  17  18
ENDBRANCH  15  17
ENDBRANCH   6  15
TORSDOF 4
ENDMDL
